CM -------------------------------------------------------------------
CM  NEC2 model for simulating a folded dipole built from copper wire.
CM  Geometry is tuned for min SWR at 146.000 MHz
CM  
CM  Wire length before bends = 75.833 in
CM  Radius of bends          =  1.000 in
CM -------------------------------------------------------------------
CE
GS          0          0       1000
GW          1         41     441,64     111,12     914,40    -441,64     111,12     914,40      10,00
GA          2         15      25,40      90,00     270,00      10,00          0          0          0
GW          3         41    -441,64     161,93     914,40     441,64     161,93     914,40      10,00
GA          4         15      25,40      90,00     270,00      10,00          0          0          0
GW          5         41     511,18       0,00     914,40    -511,18       0,00     914,40      10,00
GM          0          0      90,00       0,00       0,00    -441,64     136,53     914,40          2
GM          0          0       0,00       0,00       0,00     441,64    -136,53    -914,40          3
GM          0          0       0,00       0,00      -0,00       0,00       0,00       0,00          3
GM          0          0       0,00      -0,00       0,00       0,00       0,00       0,00          3
GM          0          0     -90,00       0,00       0,00       0,00       0,00       0,00          3
GM          0          0      90,00       0,00     180,00     441,64     136,53     914,40          4
GM          0          0       0,00       0,00       0,00    -441,64    -136,53    -914,40          5
GM          0          0       0,00       0,00    -180,00       0,00       0,00       0,00          5
GM          0          0       0,00      -0,00       0,00       0,00       0,00       0,00          5
GM          0          0     -90,00       0,00       0,00       0,00       0,00       0,00          5
GE          0
EX          0          3         21          0 1,0000E+00 0,0000E+00
FR 0,0000E+00 4,0000E+01          0          0 1,4550E+02 5,0000E-02
RP          0         37         37          0 0,0000E+00 0,0000E+00 1,0000E+01 1,0000E+01
EN
