CM -------------------------------------------------------------------
CM collinear wire antenna for 1090MHz using 14AWG solid copper wire 
CM 
CM                       _                        _ 
CM                      / \                      / \  
CM                     |   |                    |   | 
CM                      \ /                      \ / 
CM (feed)________________X________________________X________________________  ... 
CM                   ^              ^ 
CM                   |   ^          |             # Repeat these loops and wires 
CM  l/2 wire --------+   |          |             # as much as is desired 
CM  l/4 loop ------------+          |             # 5-7 stages are good 
CM 3l/4 loop -----------------------+ 
CM 
CM -------------------------------------------------------------------
CE
GW     1    24  0.00000E+00  0.00000E+00  0.00000E+00  0.00000E+00  0.00000E+00  1.37615E-01  8.13909E-04
GH     2    24  3.25563E-03  3.25563E-03  1.09510E-02  1.09510E-02  1.09510E-02  1.09510E-02  8.13909E-04
GW     3    24  0.00000E+00  0.00000E+00  1.40870E-01  0.00000E+00  0.00000E+00  3.47292E-01  8.13909E-04
GH     4    24  3.25563E-03  3.25563E-03  1.09510E-02  1.09510E-02  1.09510E-02  1.09510E-02  8.13909E-04
GW     5    24  0.00000E+00  0.00000E+00  3.50548E-01  0.00000E+00  0.00000E+00  5.56970E-01  8.13909E-04
GH     6    24  3.25563E-03  3.25563E-03  1.09510E-02  1.09510E-02  1.09510E-02  1.09510E-02  8.13909E-04
GW     7    24  0.00000E+00  0.00000E+00  5.60226E-01  0.00000E+00  0.00000E+00  7.66648E-01  8.13909E-04
GH     8    24  3.25563E-03  3.25563E-03  1.09510E-02  1.09510E-02  1.09510E-02  1.09510E-02  8.13909E-04
GW     9    24  0.00000E+00  0.00000E+00  7.69903E-01  0.00000E+00  0.00000E+00  9.76325E-01  8.13909E-04
GH    10    24  3.25563E-03  3.25563E-03  1.09510E-02  1.09510E-02  1.09510E-02  1.09510E-02  8.13909E-04
GW    11    24  0.00000E+00  0.00000E+00  9.79581E-01  0.00000E+00  0.00000E+00  1.18600E+00  8.13909E-04
GM     0     0  0.00000E+00  0.00000E+00  1.80000E+02  1.09510E-02  0.00000E+00  1.37615E-01  2.00000E+00
GM     0     0  0.00000E+00  0.00000E+00  0.00000E+00 -1.09510E-02 -0.00000E+00 -1.37615E-01  3.00000E+00
GM     0     0  0.00000E+00  0.00000E+00 -1.80000E+02  0.00000E+00  0.00000E+00  0.00000E+00  3.00000E+00
GM     0     0  0.00000E+00 -0.00000E+00  0.00000E+00  0.00000E+00  0.00000E+00  0.00000E+00  3.00000E+00
GM     0     0 -0.00000E+00  0.00000E+00  0.00000E+00  0.00000E+00  0.00000E+00  0.00000E+00  3.00000E+00
GM     0     0  0.00000E+00  0.00000E+00  1.80000E+02  1.09510E-02  0.00000E+00  3.47292E-01  4.00000E+00
GM     0     0  0.00000E+00  0.00000E+00  0.00000E+00 -1.09510E-02 -0.00000E+00 -3.47292E-01  5.00000E+00
GM     0     0  0.00000E+00  0.00000E+00 -1.80000E+02  0.00000E+00  0.00000E+00  0.00000E+00  5.00000E+00
GM     0     0  0.00000E+00 -0.00000E+00  0.00000E+00  0.00000E+00  0.00000E+00  0.00000E+00  5.00000E+00
GM     0     0 -0.00000E+00  0.00000E+00  0.00000E+00  0.00000E+00  0.00000E+00  0.00000E+00  5.00000E+00
GM     0     0  0.00000E+00  0.00000E+00  1.80000E+02  1.09510E-02  0.00000E+00  5.56970E-01  6.00000E+00
GM     0     0  0.00000E+00  0.00000E+00  0.00000E+00 -1.09510E-02 -0.00000E+00 -5.56970E-01  7.00000E+00
GM     0     0  0.00000E+00  0.00000E+00 -1.80000E+02  0.00000E+00  0.00000E+00  0.00000E+00  7.00000E+00
GM     0     0  0.00000E+00 -0.00000E+00  0.00000E+00  0.00000E+00  0.00000E+00  0.00000E+00  7.00000E+00
GM     0     0 -0.00000E+00  0.00000E+00  0.00000E+00  0.00000E+00  0.00000E+00  0.00000E+00  7.00000E+00
GM     0     0  0.00000E+00  0.00000E+00  1.80000E+02  1.09510E-02  0.00000E+00  7.66648E-01  8.00000E+00
GM     0     0  0.00000E+00  0.00000E+00  0.00000E+00 -1.09510E-02 -0.00000E+00 -7.66648E-01  9.00000E+00
GM     0     0  0.00000E+00  0.00000E+00 -1.80000E+02  0.00000E+00  0.00000E+00  0.00000E+00  9.00000E+00
GM     0     0  0.00000E+00 -0.00000E+00  0.00000E+00  0.00000E+00  0.00000E+00  0.00000E+00  9.00000E+00
GM     0     0 -0.00000E+00  0.00000E+00  0.00000E+00  0.00000E+00  0.00000E+00  0.00000E+00  9.00000E+00
GM     0     0  0.00000E+00  0.00000E+00  1.80000E+02  1.09510E-02  0.00000E+00  9.76325E-01  1.00000E+01
GM     0     0  0.00000E+00  0.00000E+00  0.00000E+00 -1.09510E-02 -0.00000E+00 -9.76325E-01  1.10000E+01
GM     0     0  0.00000E+00  0.00000E+00 -1.80000E+02  0.00000E+00  0.00000E+00  0.00000E+00  1.10000E+01
GM     0     0  0.00000E+00 -0.00000E+00  0.00000E+00  0.00000E+00  0.00000E+00  0.00000E+00  1.10000E+01
GM     0     0 -0.00000E+00  0.00000E+00  0.00000E+00  0.00000E+00  0.00000E+00  0.00000E+00  1.10000E+01
GE     0     0  0.00000E+00  0.00000E+00  0.00000E+00  0.00000E+00  0.00000E+00  0.00000E+00  0.00000E+00
EX     0     1     1     0  1.00000E+00  0.00000E+00  0.00000E+00  0.00000E+00  0.00000E+00  0.00000E+00
FR     0    40     0     0  1.08900E+03  5.00000E-02
RP     0    37    37     0  0.00000E+00  0.00000E+00  1.00000E+01  1.00000E+01
EN
